*SPEF "ieee 1481-1999"
*DESIGN "openframe_project_wrapper"
*DATE "11:11:11 Fri 11 11, 1111"
*VENDOR "OpenRCX"
*PROGRAM "Parallel Extraction"
*VERSION "1.0"
*DESIGN_FLOW "NAME_SCOPE LOCAL" "PIN_CAP NONE"
*DIVIDER /
*DELIMITER :
*BUS_DELIMITER []
*T_UNIT 1 NS
*C_UNIT 1 PF
*R_UNIT 1 OHM
*L_UNIT 1 HENRY

*NAME_MAP
*1 analog_io[0]
*2 analog_io[10]
*3 analog_io[11]
*4 analog_io[12]
*5 analog_io[13]
*6 analog_io[14]
*7 analog_io[15]
*8 analog_io[16]
*9 analog_io[17]
*10 analog_io[18]
*11 analog_io[19]
*12 analog_io[1]
*13 analog_io[20]
*14 analog_io[21]
*15 analog_io[22]
*16 analog_io[23]
*17 analog_io[24]
*18 analog_io[25]
*19 analog_io[26]
*20 analog_io[27]
*21 analog_io[28]
*22 analog_io[29]
*23 analog_io[2]
*24 analog_io[30]
*25 analog_io[31]
*26 analog_io[32]
*27 analog_io[33]
*28 analog_io[34]
*29 analog_io[35]
*30 analog_io[36]
*31 analog_io[37]
*32 analog_io[38]
*33 analog_io[39]
*34 analog_io[3]
*35 analog_io[40]
*36 analog_io[41]
*37 analog_io[42]
*38 analog_io[43]
*39 analog_io[4]
*40 analog_io[5]
*41 analog_io[6]
*42 analog_io[7]
*43 analog_io[8]
*44 analog_io[9]
*45 analog_noesd_io[0]
*46 analog_noesd_io[10]
*47 analog_noesd_io[11]
*48 analog_noesd_io[12]
*49 analog_noesd_io[13]
*50 analog_noesd_io[14]
*51 analog_noesd_io[15]
*52 analog_noesd_io[16]
*53 analog_noesd_io[17]
*54 analog_noesd_io[18]
*55 analog_noesd_io[19]
*56 analog_noesd_io[1]
*57 analog_noesd_io[20]
*58 analog_noesd_io[21]
*59 analog_noesd_io[22]
*60 analog_noesd_io[23]
*61 analog_noesd_io[24]
*62 analog_noesd_io[25]
*63 analog_noesd_io[26]
*64 analog_noesd_io[27]
*65 analog_noesd_io[28]
*66 analog_noesd_io[29]
*67 analog_noesd_io[2]
*68 analog_noesd_io[30]
*69 analog_noesd_io[31]
*70 analog_noesd_io[32]
*71 analog_noesd_io[33]
*72 analog_noesd_io[34]
*73 analog_noesd_io[35]
*74 analog_noesd_io[36]
*75 analog_noesd_io[37]
*76 analog_noesd_io[38]
*77 analog_noesd_io[39]
*78 analog_noesd_io[3]
*79 analog_noesd_io[40]
*80 analog_noesd_io[41]
*81 analog_noesd_io[42]
*82 analog_noesd_io[43]
*83 analog_noesd_io[4]
*84 analog_noesd_io[5]
*85 analog_noesd_io[6]
*86 analog_noesd_io[7]
*87 analog_noesd_io[8]
*88 analog_noesd_io[9]
*89 gpio_loopback_zero[0]
*90 gpio_loopback_zero[10]
*91 gpio_loopback_zero[11]
*92 gpio_loopback_zero[12]
*93 gpio_loopback_zero[13]
*94 gpio_loopback_zero[14]
*95 gpio_loopback_zero[15]
*96 gpio_loopback_zero[16]
*97 gpio_loopback_zero[17]
*98 gpio_loopback_zero[18]
*99 gpio_loopback_zero[19]
*100 gpio_loopback_zero[1]
*101 gpio_loopback_zero[20]
*102 gpio_loopback_zero[21]
*103 gpio_loopback_zero[22]
*104 gpio_loopback_zero[23]
*105 gpio_loopback_zero[24]
*106 gpio_loopback_zero[25]
*107 gpio_loopback_zero[26]
*108 gpio_loopback_zero[27]
*109 gpio_loopback_zero[28]
*110 gpio_loopback_zero[29]
*111 gpio_loopback_zero[2]
*112 gpio_loopback_zero[30]
*113 gpio_loopback_zero[31]
*114 gpio_loopback_zero[32]
*115 gpio_loopback_zero[33]
*116 gpio_loopback_zero[34]
*117 gpio_loopback_zero[35]
*118 gpio_loopback_zero[36]
*119 gpio_loopback_zero[37]
*120 gpio_loopback_zero[38]
*121 gpio_loopback_zero[39]
*122 gpio_loopback_zero[3]
*123 gpio_loopback_zero[40]
*124 gpio_loopback_zero[41]
*125 gpio_loopback_zero[42]
*126 gpio_loopback_zero[43]
*127 gpio_loopback_zero[4]
*128 gpio_loopback_zero[5]
*129 gpio_loopback_zero[6]
*130 gpio_loopback_zero[7]
*131 gpio_loopback_zero[8]
*132 gpio_loopback_zero[9]
*133 gpio_dm0[0]
*134 gpio_dm0[10]
*135 gpio_dm0[11]
*136 gpio_dm0[12]
*137 gpio_dm0[13]
*138 gpio_dm0[14]
*139 gpio_dm0[15]
*140 gpio_dm0[16]
*141 gpio_dm0[17]
*142 gpio_dm0[18]
*143 gpio_dm0[19]
*144 gpio_dm0[1]
*145 gpio_dm0[20]
*146 gpio_dm0[21]
*147 gpio_dm0[22]
*148 gpio_dm0[23]
*149 gpio_dm0[24]
*150 gpio_dm0[25]
*151 gpio_dm0[26]
*152 gpio_dm0[27]
*153 gpio_dm0[28]
*154 gpio_dm0[29]
*155 gpio_dm0[2]
*156 gpio_dm0[30]
*157 gpio_dm0[31]
*158 gpio_dm0[32]
*159 gpio_dm0[33]
*160 gpio_dm0[34]
*161 gpio_dm0[35]
*162 gpio_dm0[36]
*163 gpio_dm0[37]
*164 gpio_dm0[38]
*165 gpio_dm0[39]
*166 gpio_dm0[3]
*167 gpio_dm0[40]
*168 gpio_dm0[41]
*169 gpio_dm0[42]
*170 gpio_dm0[43]
*171 gpio_dm0[4]
*172 gpio_dm0[5]
*173 gpio_dm0[6]
*174 gpio_dm0[7]
*175 gpio_dm0[8]
*176 gpio_dm0[9]
*177 gpio_dm1[0]
*178 gpio_dm1[10]
*179 gpio_dm1[11]
*180 gpio_dm1[12]
*181 gpio_dm1[13]
*182 gpio_dm1[14]
*183 gpio_dm1[15]
*184 gpio_dm1[16]
*185 gpio_dm1[17]
*186 gpio_dm1[18]
*187 gpio_dm1[19]
*188 gpio_dm1[1]
*189 gpio_dm1[20]
*190 gpio_dm1[21]
*191 gpio_dm1[22]
*192 gpio_dm1[23]
*193 gpio_dm1[24]
*194 gpio_dm1[25]
*195 gpio_dm1[26]
*196 gpio_dm1[27]
*197 gpio_dm1[28]
*198 gpio_dm1[29]
*199 gpio_dm1[2]
*200 gpio_dm1[30]
*201 gpio_dm1[31]
*202 gpio_dm1[32]
*203 gpio_dm1[33]
*204 gpio_dm1[34]
*205 gpio_dm1[35]
*206 gpio_dm1[36]
*207 gpio_dm1[37]
*208 gpio_dm1[38]
*209 gpio_dm1[39]
*210 gpio_dm1[3]
*211 gpio_dm1[40]
*212 gpio_dm1[41]
*213 gpio_dm1[42]
*214 gpio_dm1[43]
*215 gpio_dm1[4]
*216 gpio_dm1[5]
*217 gpio_dm1[6]
*218 gpio_dm1[7]
*219 gpio_dm1[8]
*220 gpio_dm1[9]
*221 gpio_dm2[0]
*222 gpio_dm2[10]
*223 gpio_dm2[11]
*224 gpio_dm2[12]
*225 gpio_dm2[13]
*226 gpio_dm2[14]
*227 gpio_dm2[15]
*228 gpio_dm2[16]
*229 gpio_dm2[17]
*230 gpio_dm2[18]
*231 gpio_dm2[19]
*232 gpio_dm2[1]
*233 gpio_dm2[20]
*234 gpio_dm2[21]
*235 gpio_dm2[22]
*236 gpio_dm2[23]
*237 gpio_dm2[24]
*238 gpio_dm2[25]
*239 gpio_dm2[26]
*240 gpio_dm2[27]
*241 gpio_dm2[28]
*242 gpio_dm2[29]
*243 gpio_dm2[2]
*244 gpio_dm2[30]
*245 gpio_dm2[31]
*246 gpio_dm2[32]
*247 gpio_dm2[33]
*248 gpio_dm2[34]
*249 gpio_dm2[35]
*250 gpio_dm2[36]
*251 gpio_dm2[37]
*252 gpio_dm2[38]
*253 gpio_dm2[39]
*254 gpio_dm2[3]
*255 gpio_dm2[40]
*256 gpio_dm2[41]
*257 gpio_dm2[42]
*258 gpio_dm2[43]
*259 gpio_dm2[4]
*260 gpio_dm2[5]
*261 gpio_dm2[6]
*262 gpio_dm2[7]
*263 gpio_dm2[8]
*264 gpio_dm2[9]
*265 gpio_ib_mode_sel[0]
*266 gpio_ib_mode_sel[10]
*267 gpio_ib_mode_sel[11]
*268 gpio_ib_mode_sel[12]
*269 gpio_ib_mode_sel[13]
*270 gpio_ib_mode_sel[14]
*271 gpio_ib_mode_sel[15]
*272 gpio_ib_mode_sel[16]
*273 gpio_ib_mode_sel[17]
*274 gpio_ib_mode_sel[18]
*275 gpio_ib_mode_sel[19]
*276 gpio_ib_mode_sel[1]
*277 gpio_ib_mode_sel[20]
*278 gpio_ib_mode_sel[21]
*279 gpio_ib_mode_sel[22]
*280 gpio_ib_mode_sel[23]
*281 gpio_ib_mode_sel[24]
*282 gpio_ib_mode_sel[25]
*283 gpio_ib_mode_sel[26]
*284 gpio_ib_mode_sel[27]
*285 gpio_ib_mode_sel[28]
*286 gpio_ib_mode_sel[29]
*287 gpio_ib_mode_sel[2]
*288 gpio_ib_mode_sel[30]
*289 gpio_ib_mode_sel[31]
*290 gpio_ib_mode_sel[32]
*291 gpio_ib_mode_sel[33]
*292 gpio_ib_mode_sel[34]
*293 gpio_ib_mode_sel[35]
*294 gpio_ib_mode_sel[36]
*295 gpio_ib_mode_sel[37]
*296 gpio_ib_mode_sel[38]
*297 gpio_ib_mode_sel[39]
*298 gpio_ib_mode_sel[3]
*299 gpio_ib_mode_sel[40]
*300 gpio_ib_mode_sel[41]
*301 gpio_ib_mode_sel[42]
*302 gpio_ib_mode_sel[43]
*303 gpio_ib_mode_sel[4]
*304 gpio_ib_mode_sel[5]
*305 gpio_ib_mode_sel[6]
*306 gpio_ib_mode_sel[7]
*307 gpio_ib_mode_sel[8]
*308 gpio_ib_mode_sel[9]
*309 gpio_in[0]
*310 gpio_in[10]
*311 gpio_in[11]
*312 gpio_in[12]
*313 gpio_in[13]
*314 gpio_in[14]
*315 gpio_in[15]
*316 gpio_in[16]
*317 gpio_in[17]
*318 gpio_in[18]
*319 gpio_in[19]
*320 gpio_in[1]
*321 gpio_in[20]
*322 gpio_in[21]
*323 gpio_in[22]
*324 gpio_in[23]
*325 gpio_in[24]
*326 gpio_in[25]
*327 gpio_in[26]
*328 gpio_in[27]
*329 gpio_in[28]
*330 gpio_in[29]
*331 gpio_in[2]
*332 gpio_in[30]
*333 gpio_in[31]
*334 gpio_in[32]
*335 gpio_in[33]
*336 gpio_in[34]
*337 gpio_in[35]
*338 gpio_in[36]
*339 gpio_in[37]
*340 gpio_in[38]
*341 gpio_in[39]
*342 gpio_in[3]
*343 gpio_in[40]
*344 gpio_in[41]
*345 gpio_in[42]
*346 gpio_in[43]
*347 gpio_in[4]
*348 gpio_in[5]
*349 gpio_in[6]
*350 gpio_in[7]
*351 gpio_in[8]
*352 gpio_in[9]
*353 gpio_in_h[0]
*354 gpio_in_h[10]
*355 gpio_in_h[11]
*356 gpio_in_h[12]
*357 gpio_in_h[13]
*358 gpio_in_h[14]
*359 gpio_in_h[15]
*360 gpio_in_h[16]
*361 gpio_in_h[17]
*362 gpio_in_h[18]
*363 gpio_in_h[19]
*364 gpio_in_h[1]
*365 gpio_in_h[20]
*366 gpio_in_h[21]
*367 gpio_in_h[22]
*368 gpio_in_h[23]
*369 gpio_in_h[24]
*370 gpio_in_h[25]
*371 gpio_in_h[26]
*372 gpio_in_h[27]
*373 gpio_in_h[28]
*374 gpio_in_h[29]
*375 gpio_in_h[2]
*376 gpio_in_h[30]
*377 gpio_in_h[31]
*378 gpio_in_h[32]
*379 gpio_in_h[33]
*380 gpio_in_h[34]
*381 gpio_in_h[35]
*382 gpio_in_h[36]
*383 gpio_in_h[37]
*384 gpio_in_h[38]
*385 gpio_in_h[39]
*386 gpio_in_h[3]
*387 gpio_in_h[40]
*388 gpio_in_h[41]
*389 gpio_in_h[42]
*390 gpio_in_h[43]
*391 gpio_in_h[4]
*392 gpio_in_h[5]
*393 gpio_in_h[6]
*394 gpio_in_h[7]
*395 gpio_in_h[8]
*396 gpio_in_h[9]
*397 gpio_inp_dis[0]
*398 gpio_inp_dis[10]
*399 gpio_inp_dis[11]
*400 gpio_inp_dis[12]
*401 gpio_inp_dis[13]
*402 gpio_inp_dis[14]
*403 gpio_inp_dis[15]
*404 gpio_inp_dis[16]
*405 gpio_inp_dis[17]
*406 gpio_inp_dis[18]
*407 gpio_inp_dis[19]
*408 gpio_inp_dis[1]
*409 gpio_inp_dis[20]
*410 gpio_inp_dis[21]
*411 gpio_inp_dis[22]
*412 gpio_inp_dis[23]
*413 gpio_inp_dis[24]
*414 gpio_inp_dis[25]
*415 gpio_inp_dis[26]
*416 gpio_inp_dis[27]
*417 gpio_inp_dis[28]
*418 gpio_inp_dis[29]
*419 gpio_inp_dis[2]
*420 gpio_inp_dis[30]
*421 gpio_inp_dis[31]
*422 gpio_inp_dis[32]
*423 gpio_inp_dis[33]
*424 gpio_inp_dis[34]
*425 gpio_inp_dis[35]
*426 gpio_inp_dis[36]
*427 gpio_inp_dis[37]
*428 gpio_inp_dis[38]
*429 gpio_inp_dis[39]
*430 gpio_inp_dis[3]
*431 gpio_inp_dis[40]
*432 gpio_inp_dis[41]
*433 gpio_inp_dis[42]
*434 gpio_inp_dis[43]
*435 gpio_inp_dis[4]
*436 gpio_inp_dis[5]
*437 gpio_inp_dis[6]
*438 gpio_inp_dis[7]
*439 gpio_inp_dis[8]
*440 gpio_inp_dis[9]
*441 gpio_loopback_one[0]
*442 gpio_loopback_one[10]
*443 gpio_loopback_one[11]
*444 gpio_loopback_one[12]
*445 gpio_loopback_one[13]
*446 gpio_loopback_one[14]
*447 gpio_loopback_one[15]
*448 gpio_loopback_one[16]
*449 gpio_loopback_one[17]
*450 gpio_loopback_one[18]
*451 gpio_loopback_one[19]
*452 gpio_loopback_one[1]
*453 gpio_loopback_one[20]
*454 gpio_loopback_one[21]
*455 gpio_loopback_one[22]
*456 gpio_loopback_one[23]
*457 gpio_loopback_one[24]
*458 gpio_loopback_one[25]
*459 gpio_loopback_one[26]
*460 gpio_loopback_one[27]
*461 gpio_loopback_one[28]
*462 gpio_loopback_one[29]
*463 gpio_loopback_one[2]
*464 gpio_loopback_one[30]
*465 gpio_loopback_one[31]
*466 gpio_loopback_one[32]
*467 gpio_loopback_one[33]
*468 gpio_loopback_one[34]
*469 gpio_loopback_one[35]
*470 gpio_loopback_one[36]
*471 gpio_loopback_one[37]
*472 gpio_loopback_one[38]
*473 gpio_loopback_one[39]
*474 gpio_loopback_one[3]
*475 gpio_loopback_one[40]
*476 gpio_loopback_one[41]
*477 gpio_loopback_one[42]
*478 gpio_loopback_one[43]
*479 gpio_loopback_one[4]
*480 gpio_loopback_one[5]
*481 gpio_loopback_one[6]
*482 gpio_loopback_one[7]
*483 gpio_loopback_one[8]
*484 gpio_loopback_one[9]
*485 gpio_oeb[0]
*486 gpio_oeb[10]
*487 gpio_oeb[11]
*488 gpio_oeb[12]
*489 gpio_oeb[13]
*490 gpio_oeb[14]
*491 gpio_oeb[15]
*492 gpio_oeb[16]
*493 gpio_oeb[17]
*494 gpio_oeb[18]
*495 gpio_oeb[19]
*496 gpio_oeb[1]
*497 gpio_oeb[20]
*498 gpio_oeb[21]
*499 gpio_oeb[22]
*500 gpio_oeb[23]
*501 gpio_oeb[24]
*502 gpio_oeb[25]
*503 gpio_oeb[26]
*504 gpio_oeb[27]
*505 gpio_oeb[28]
*506 gpio_oeb[29]
*507 gpio_oeb[2]
*508 gpio_oeb[30]
*509 gpio_oeb[31]
*510 gpio_oeb[32]
*511 gpio_oeb[33]
*512 gpio_oeb[34]
*513 gpio_oeb[35]
*514 gpio_oeb[36]
*515 gpio_oeb[37]
*516 gpio_oeb[38]
*517 gpio_oeb[39]
*518 gpio_oeb[3]
*519 gpio_oeb[40]
*520 gpio_oeb[41]
*521 gpio_oeb[42]
*522 gpio_oeb[43]
*523 gpio_oeb[4]
*524 gpio_oeb[5]
*525 gpio_oeb[6]
*526 gpio_oeb[7]
*527 gpio_oeb[8]
*528 gpio_oeb[9]
*529 gpio_out[0]
*530 gpio_out[10]
*531 gpio_out[11]
*532 gpio_out[12]
*533 gpio_out[13]
*534 gpio_out[14]
*535 gpio_out[15]
*536 gpio_out[16]
*537 gpio_out[17]
*538 gpio_out[18]
*539 gpio_out[19]
*540 gpio_out[1]
*541 gpio_out[20]
*542 gpio_out[21]
*543 gpio_out[22]
*544 gpio_out[23]
*545 gpio_out[24]
*546 gpio_out[25]
*547 gpio_out[26]
*548 gpio_out[27]
*549 gpio_out[28]
*550 gpio_out[29]
*551 gpio_out[2]
*552 gpio_out[30]
*553 gpio_out[31]
*554 gpio_out[32]
*555 gpio_out[33]
*556 gpio_out[34]
*557 gpio_out[35]
*558 gpio_out[36]
*559 gpio_out[37]
*560 gpio_out[38]
*561 gpio_out[39]
*562 gpio_out[3]
*563 gpio_out[40]
*564 gpio_out[41]
*565 gpio_out[42]
*566 gpio_out[43]
*567 gpio_out[4]
*568 gpio_out[5]
*569 gpio_out[6]
*570 gpio_out[7]
*571 gpio_out[8]
*572 gpio_out[9]
*573 gpio_slow_sel[0]
*574 gpio_slow_sel[10]
*575 gpio_slow_sel[11]
*576 gpio_slow_sel[12]
*577 gpio_slow_sel[13]
*578 gpio_slow_sel[14]
*579 gpio_slow_sel[15]
*580 gpio_slow_sel[16]
*581 gpio_slow_sel[17]
*582 gpio_slow_sel[18]
*583 gpio_slow_sel[19]
*584 gpio_slow_sel[1]
*585 gpio_slow_sel[20]
*586 gpio_slow_sel[21]
*587 gpio_slow_sel[22]
*588 gpio_slow_sel[23]
*589 gpio_slow_sel[24]
*590 gpio_slow_sel[25]
*591 gpio_slow_sel[26]
*592 gpio_slow_sel[27]
*593 gpio_slow_sel[28]
*594 gpio_slow_sel[29]
*595 gpio_slow_sel[2]
*596 gpio_slow_sel[30]
*597 gpio_slow_sel[31]
*598 gpio_slow_sel[32]
*599 gpio_slow_sel[33]
*600 gpio_slow_sel[34]
*601 gpio_slow_sel[35]
*602 gpio_slow_sel[36]
*603 gpio_slow_sel[37]
*604 gpio_slow_sel[38]
*605 gpio_slow_sel[39]
*606 gpio_slow_sel[3]
*607 gpio_slow_sel[40]
*608 gpio_slow_sel[41]
*609 gpio_slow_sel[42]
*610 gpio_slow_sel[43]
*611 gpio_slow_sel[4]
*612 gpio_slow_sel[5]
*613 gpio_slow_sel[6]
*614 gpio_slow_sel[7]
*615 gpio_slow_sel[8]
*616 gpio_slow_sel[9]
*617 gpio_vtrip_sel[0]
*618 gpio_vtrip_sel[10]
*619 gpio_vtrip_sel[11]
*620 gpio_vtrip_sel[12]
*621 gpio_vtrip_sel[13]
*622 gpio_vtrip_sel[14]
*623 gpio_vtrip_sel[15]
*624 gpio_vtrip_sel[16]
*625 gpio_vtrip_sel[17]
*626 gpio_vtrip_sel[18]
*627 gpio_vtrip_sel[19]
*628 gpio_vtrip_sel[1]
*629 gpio_vtrip_sel[20]
*630 gpio_vtrip_sel[21]
*631 gpio_vtrip_sel[22]
*632 gpio_vtrip_sel[23]
*633 gpio_vtrip_sel[24]
*634 gpio_vtrip_sel[25]
*635 gpio_vtrip_sel[26]
*636 gpio_vtrip_sel[27]
*637 gpio_vtrip_sel[28]
*638 gpio_vtrip_sel[29]
*639 gpio_vtrip_sel[2]
*640 gpio_vtrip_sel[30]
*641 gpio_vtrip_sel[31]
*642 gpio_vtrip_sel[32]
*643 gpio_vtrip_sel[33]
*644 gpio_vtrip_sel[34]
*645 gpio_vtrip_sel[35]
*646 gpio_vtrip_sel[36]
*647 gpio_vtrip_sel[37]
*648 gpio_vtrip_sel[38]
*649 gpio_vtrip_sel[39]
*650 gpio_vtrip_sel[3]
*651 gpio_vtrip_sel[40]
*652 gpio_vtrip_sel[41]
*653 gpio_vtrip_sel[42]
*654 gpio_vtrip_sel[43]
*655 gpio_vtrip_sel[4]
*656 gpio_vtrip_sel[5]
*657 gpio_vtrip_sel[6]
*658 gpio_vtrip_sel[7]
*659 gpio_vtrip_sel[8]
*660 gpio_vtrip_sel[9]
*661 mask_rev[0]
*662 mask_rev[10]
*663 mask_rev[11]
*664 mask_rev[12]
*665 mask_rev[13]
*666 mask_rev[14]
*667 mask_rev[15]
*668 mask_rev[16]
*669 mask_rev[17]
*670 mask_rev[18]
*671 mask_rev[19]
*672 mask_rev[1]
*673 mask_rev[20]
*674 mask_rev[21]
*675 mask_rev[22]
*676 mask_rev[23]
*677 mask_rev[24]
*678 mask_rev[25]
*679 mask_rev[26]
*680 mask_rev[27]
*681 mask_rev[28]
*682 mask_rev[29]
*683 mask_rev[2]
*684 mask_rev[30]
*685 mask_rev[31]
*686 mask_rev[3]
*687 mask_rev[4]
*688 mask_rev[5]
*689 mask_rev[6]
*690 mask_rev[7]
*691 mask_rev[8]
*692 mask_rev[9]
*693 por_l
*694 porb_h
*695 porb_l
*696 resetb_h
*697 resetb_l
*698 mprj

*PORTS
analog_io[0] I
analog_io[10] I
analog_io[11] I
analog_io[12] I
analog_io[13] I
analog_io[14] I
analog_io[15] I
analog_io[16] I
analog_io[17] I
analog_io[18] I
analog_io[19] I
analog_io[1] I
analog_io[20] I
analog_io[21] I
analog_io[22] I
analog_io[23] I
analog_io[24] I
analog_io[25] I
analog_io[26] I
analog_io[27] I
analog_io[28] I
analog_io[29] I
analog_io[2] I
analog_io[30] I
analog_io[31] I
analog_io[32] I
analog_io[33] I
analog_io[34] I
analog_io[35] I
analog_io[36] I
analog_io[37] I
analog_io[38] I
analog_io[39] I
analog_io[3] I
analog_io[40] I
analog_io[41] I
analog_io[42] I
analog_io[43] I
analog_io[4] I
analog_io[5] I
analog_io[6] I
analog_io[7] I
analog_io[8] I
analog_io[9] I
analog_noesd_io[0] I
analog_noesd_io[10] I
analog_noesd_io[11] I
analog_noesd_io[12] I
analog_noesd_io[13] I
analog_noesd_io[14] I
analog_noesd_io[15] I
analog_noesd_io[16] I
analog_noesd_io[17] I
analog_noesd_io[18] I
analog_noesd_io[19] I
analog_noesd_io[1] I
analog_noesd_io[20] I
analog_noesd_io[21] I
analog_noesd_io[22] I
analog_noesd_io[23] I
analog_noesd_io[24] I
analog_noesd_io[25] I
analog_noesd_io[26] I
analog_noesd_io[27] I
analog_noesd_io[28] I
analog_noesd_io[29] I
analog_noesd_io[2] I
analog_noesd_io[30] I
analog_noesd_io[31] I
analog_noesd_io[32] I
analog_noesd_io[33] I
analog_noesd_io[34] I
analog_noesd_io[35] I
analog_noesd_io[36] I
analog_noesd_io[37] I
analog_noesd_io[38] I
analog_noesd_io[39] I
analog_noesd_io[3] I
analog_noesd_io[40] I
analog_noesd_io[41] I
analog_noesd_io[42] I
analog_noesd_io[43] I
analog_noesd_io[4] I
analog_noesd_io[5] I
analog_noesd_io[6] I
analog_noesd_io[7] I
analog_noesd_io[8] I
analog_noesd_io[9] I
gpio_analog_en[0] O
gpio_analog_en[10] O
gpio_analog_en[11] O
gpio_analog_en[12] O
gpio_analog_en[13] O
gpio_analog_en[14] O
gpio_analog_en[15] O
gpio_analog_en[16] O
gpio_analog_en[17] O
gpio_analog_en[18] O
gpio_analog_en[19] O
gpio_analog_en[1] O
gpio_analog_en[20] O
gpio_analog_en[21] O
gpio_analog_en[22] O
gpio_analog_en[23] O
gpio_analog_en[24] O
gpio_analog_en[25] O
gpio_analog_en[26] O
gpio_analog_en[27] O
gpio_analog_en[28] O
gpio_analog_en[29] O
gpio_analog_en[2] O
gpio_analog_en[30] O
gpio_analog_en[31] O
gpio_analog_en[32] O
gpio_analog_en[33] O
gpio_analog_en[34] O
gpio_analog_en[35] O
gpio_analog_en[36] O
gpio_analog_en[37] O
gpio_analog_en[38] O
gpio_analog_en[39] O
gpio_analog_en[3] O
gpio_analog_en[40] O
gpio_analog_en[41] O
gpio_analog_en[42] O
gpio_analog_en[43] O
gpio_analog_en[4] O
gpio_analog_en[5] O
gpio_analog_en[6] O
gpio_analog_en[7] O
gpio_analog_en[8] O
gpio_analog_en[9] O
gpio_analog_pol[0] O
gpio_analog_pol[10] O
gpio_analog_pol[11] O
gpio_analog_pol[12] O
gpio_analog_pol[13] O
gpio_analog_pol[14] O
gpio_analog_pol[15] O
gpio_analog_pol[16] O
gpio_analog_pol[17] O
gpio_analog_pol[18] O
gpio_analog_pol[19] O
gpio_analog_pol[1] O
gpio_analog_pol[20] O
gpio_analog_pol[21] O
gpio_analog_pol[22] O
gpio_analog_pol[23] O
gpio_analog_pol[24] O
gpio_analog_pol[25] O
gpio_analog_pol[26] O
gpio_analog_pol[27] O
gpio_analog_pol[28] O
gpio_analog_pol[29] O
gpio_analog_pol[2] O
gpio_analog_pol[30] O
gpio_analog_pol[31] O
gpio_analog_pol[32] O
gpio_analog_pol[33] O
gpio_analog_pol[34] O
gpio_analog_pol[35] O
gpio_analog_pol[36] O
gpio_analog_pol[37] O
gpio_analog_pol[38] O
gpio_analog_pol[39] O
gpio_analog_pol[3] O
gpio_analog_pol[40] O
gpio_analog_pol[41] O
gpio_analog_pol[42] O
gpio_analog_pol[43] O
gpio_analog_pol[4] O
gpio_analog_pol[5] O
gpio_analog_pol[6] O
gpio_analog_pol[7] O
gpio_analog_pol[8] O
gpio_analog_pol[9] O
gpio_analog_sel[0] O
gpio_analog_sel[10] O
gpio_analog_sel[11] O
gpio_analog_sel[12] O
gpio_analog_sel[13] O
gpio_analog_sel[14] O
gpio_analog_sel[15] O
gpio_analog_sel[16] O
gpio_analog_sel[17] O
gpio_analog_sel[18] O
gpio_analog_sel[19] O
gpio_analog_sel[1] O
gpio_analog_sel[20] O
gpio_analog_sel[21] O
gpio_analog_sel[22] O
gpio_analog_sel[23] O
gpio_analog_sel[24] O
gpio_analog_sel[25] O
gpio_analog_sel[26] O
gpio_analog_sel[27] O
gpio_analog_sel[28] O
gpio_analog_sel[29] O
gpio_analog_sel[2] O
gpio_analog_sel[30] O
gpio_analog_sel[31] O
gpio_analog_sel[32] O
gpio_analog_sel[33] O
gpio_analog_sel[34] O
gpio_analog_sel[35] O
gpio_analog_sel[36] O
gpio_analog_sel[37] O
gpio_analog_sel[38] O
gpio_analog_sel[39] O
gpio_analog_sel[3] O
gpio_analog_sel[40] O
gpio_analog_sel[41] O
gpio_analog_sel[42] O
gpio_analog_sel[43] O
gpio_analog_sel[4] O
gpio_analog_sel[5] O
gpio_analog_sel[6] O
gpio_analog_sel[7] O
gpio_analog_sel[8] O
gpio_analog_sel[9] O
gpio_dm0[0] O
gpio_dm0[10] O
gpio_dm0[11] O
gpio_dm0[12] O
gpio_dm0[13] O
gpio_dm0[14] O
gpio_dm0[15] O
gpio_dm0[16] O
gpio_dm0[17] O
gpio_dm0[18] O
gpio_dm0[19] O
gpio_dm0[1] O
gpio_dm0[20] O
gpio_dm0[21] O
gpio_dm0[22] O
gpio_dm0[23] O
gpio_dm0[24] O
gpio_dm0[25] O
gpio_dm0[26] O
gpio_dm0[27] O
gpio_dm0[28] O
gpio_dm0[29] O
gpio_dm0[2] O
gpio_dm0[30] O
gpio_dm0[31] O
gpio_dm0[32] O
gpio_dm0[33] O
gpio_dm0[34] O
gpio_dm0[35] O
gpio_dm0[36] O
gpio_dm0[37] O
gpio_dm0[38] O
gpio_dm0[39] O
gpio_dm0[3] O
gpio_dm0[40] O
gpio_dm0[41] O
gpio_dm0[42] O
gpio_dm0[43] O
gpio_dm0[4] O
gpio_dm0[5] O
gpio_dm0[6] O
gpio_dm0[7] O
gpio_dm0[8] O
gpio_dm0[9] O
gpio_dm1[0] O
gpio_dm1[10] O
gpio_dm1[11] O
gpio_dm1[12] O
gpio_dm1[13] O
gpio_dm1[14] O
gpio_dm1[15] O
gpio_dm1[16] O
gpio_dm1[17] O
gpio_dm1[18] O
gpio_dm1[19] O
gpio_dm1[1] O
gpio_dm1[20] O
gpio_dm1[21] O
gpio_dm1[22] O
gpio_dm1[23] O
gpio_dm1[24] O
gpio_dm1[25] O
gpio_dm1[26] O
gpio_dm1[27] O
gpio_dm1[28] O
gpio_dm1[29] O
gpio_dm1[2] O
gpio_dm1[30] O
gpio_dm1[31] O
gpio_dm1[32] O
gpio_dm1[33] O
gpio_dm1[34] O
gpio_dm1[35] O
gpio_dm1[36] O
gpio_dm1[37] O
gpio_dm1[38] O
gpio_dm1[39] O
gpio_dm1[3] O
gpio_dm1[40] O
gpio_dm1[41] O
gpio_dm1[42] O
gpio_dm1[43] O
gpio_dm1[4] O
gpio_dm1[5] O
gpio_dm1[6] O
gpio_dm1[7] O
gpio_dm1[8] O
gpio_dm1[9] O
gpio_dm2[0] O
gpio_dm2[10] O
gpio_dm2[11] O
gpio_dm2[12] O
gpio_dm2[13] O
gpio_dm2[14] O
gpio_dm2[15] O
gpio_dm2[16] O
gpio_dm2[17] O
gpio_dm2[18] O
gpio_dm2[19] O
gpio_dm2[1] O
gpio_dm2[20] O
gpio_dm2[21] O
gpio_dm2[22] O
gpio_dm2[23] O
gpio_dm2[24] O
gpio_dm2[25] O
gpio_dm2[26] O
gpio_dm2[27] O
gpio_dm2[28] O
gpio_dm2[29] O
gpio_dm2[2] O
gpio_dm2[30] O
gpio_dm2[31] O
gpio_dm2[32] O
gpio_dm2[33] O
gpio_dm2[34] O
gpio_dm2[35] O
gpio_dm2[36] O
gpio_dm2[37] O
gpio_dm2[38] O
gpio_dm2[39] O
gpio_dm2[3] O
gpio_dm2[40] O
gpio_dm2[41] O
gpio_dm2[42] O
gpio_dm2[43] O
gpio_dm2[4] O
gpio_dm2[5] O
gpio_dm2[6] O
gpio_dm2[7] O
gpio_dm2[8] O
gpio_dm2[9] O
gpio_holdover[0] O
gpio_holdover[10] O
gpio_holdover[11] O
gpio_holdover[12] O
gpio_holdover[13] O
gpio_holdover[14] O
gpio_holdover[15] O
gpio_holdover[16] O
gpio_holdover[17] O
gpio_holdover[18] O
gpio_holdover[19] O
gpio_holdover[1] O
gpio_holdover[20] O
gpio_holdover[21] O
gpio_holdover[22] O
gpio_holdover[23] O
gpio_holdover[24] O
gpio_holdover[25] O
gpio_holdover[26] O
gpio_holdover[27] O
gpio_holdover[28] O
gpio_holdover[29] O
gpio_holdover[2] O
gpio_holdover[30] O
gpio_holdover[31] O
gpio_holdover[32] O
gpio_holdover[33] O
gpio_holdover[34] O
gpio_holdover[35] O
gpio_holdover[36] O
gpio_holdover[37] O
gpio_holdover[38] O
gpio_holdover[39] O
gpio_holdover[3] O
gpio_holdover[40] O
gpio_holdover[41] O
gpio_holdover[42] O
gpio_holdover[43] O
gpio_holdover[4] O
gpio_holdover[5] O
gpio_holdover[6] O
gpio_holdover[7] O
gpio_holdover[8] O
gpio_holdover[9] O
gpio_ib_mode_sel[0] O
gpio_ib_mode_sel[10] O
gpio_ib_mode_sel[11] O
gpio_ib_mode_sel[12] O
gpio_ib_mode_sel[13] O
gpio_ib_mode_sel[14] O
gpio_ib_mode_sel[15] O
gpio_ib_mode_sel[16] O
gpio_ib_mode_sel[17] O
gpio_ib_mode_sel[18] O
gpio_ib_mode_sel[19] O
gpio_ib_mode_sel[1] O
gpio_ib_mode_sel[20] O
gpio_ib_mode_sel[21] O
gpio_ib_mode_sel[22] O
gpio_ib_mode_sel[23] O
gpio_ib_mode_sel[24] O
gpio_ib_mode_sel[25] O
gpio_ib_mode_sel[26] O
gpio_ib_mode_sel[27] O
gpio_ib_mode_sel[28] O
gpio_ib_mode_sel[29] O
gpio_ib_mode_sel[2] O
gpio_ib_mode_sel[30] O
gpio_ib_mode_sel[31] O
gpio_ib_mode_sel[32] O
gpio_ib_mode_sel[33] O
gpio_ib_mode_sel[34] O
gpio_ib_mode_sel[35] O
gpio_ib_mode_sel[36] O
gpio_ib_mode_sel[37] O
gpio_ib_mode_sel[38] O
gpio_ib_mode_sel[39] O
gpio_ib_mode_sel[3] O
gpio_ib_mode_sel[40] O
gpio_ib_mode_sel[41] O
gpio_ib_mode_sel[42] O
gpio_ib_mode_sel[43] O
gpio_ib_mode_sel[4] O
gpio_ib_mode_sel[5] O
gpio_ib_mode_sel[6] O
gpio_ib_mode_sel[7] O
gpio_ib_mode_sel[8] O
gpio_ib_mode_sel[9] O
gpio_in[0] I
gpio_in[10] I
gpio_in[11] I
gpio_in[12] I
gpio_in[13] I
gpio_in[14] I
gpio_in[15] I
gpio_in[16] I
gpio_in[17] I
gpio_in[18] I
gpio_in[19] I
gpio_in[1] I
gpio_in[20] I
gpio_in[21] I
gpio_in[22] I
gpio_in[23] I
gpio_in[24] I
gpio_in[25] I
gpio_in[26] I
gpio_in[27] I
gpio_in[28] I
gpio_in[29] I
gpio_in[2] I
gpio_in[30] I
gpio_in[31] I
gpio_in[32] I
gpio_in[33] I
gpio_in[34] I
gpio_in[35] I
gpio_in[36] I
gpio_in[37] I
gpio_in[38] I
gpio_in[39] I
gpio_in[3] I
gpio_in[40] I
gpio_in[41] I
gpio_in[42] I
gpio_in[43] I
gpio_in[4] I
gpio_in[5] I
gpio_in[6] I
gpio_in[7] I
gpio_in[8] I
gpio_in[9] I
gpio_in_h[0] I
gpio_in_h[10] I
gpio_in_h[11] I
gpio_in_h[12] I
gpio_in_h[13] I
gpio_in_h[14] I
gpio_in_h[15] I
gpio_in_h[16] I
gpio_in_h[17] I
gpio_in_h[18] I
gpio_in_h[19] I
gpio_in_h[1] I
gpio_in_h[20] I
gpio_in_h[21] I
gpio_in_h[22] I
gpio_in_h[23] I
gpio_in_h[24] I
gpio_in_h[25] I
gpio_in_h[26] I
gpio_in_h[27] I
gpio_in_h[28] I
gpio_in_h[29] I
gpio_in_h[2] I
gpio_in_h[30] I
gpio_in_h[31] I
gpio_in_h[32] I
gpio_in_h[33] I
gpio_in_h[34] I
gpio_in_h[35] I
gpio_in_h[36] I
gpio_in_h[37] I
gpio_in_h[38] I
gpio_in_h[39] I
gpio_in_h[3] I
gpio_in_h[40] I
gpio_in_h[41] I
gpio_in_h[42] I
gpio_in_h[43] I
gpio_in_h[4] I
gpio_in_h[5] I
gpio_in_h[6] I
gpio_in_h[7] I
gpio_in_h[8] I
gpio_in_h[9] I
gpio_inp_dis[0] O
gpio_inp_dis[10] O
gpio_inp_dis[11] O
gpio_inp_dis[12] O
gpio_inp_dis[13] O
gpio_inp_dis[14] O
gpio_inp_dis[15] O
gpio_inp_dis[16] O
gpio_inp_dis[17] O
gpio_inp_dis[18] O
gpio_inp_dis[19] O
gpio_inp_dis[1] O
gpio_inp_dis[20] O
gpio_inp_dis[21] O
gpio_inp_dis[22] O
gpio_inp_dis[23] O
gpio_inp_dis[24] O
gpio_inp_dis[25] O
gpio_inp_dis[26] O
gpio_inp_dis[27] O
gpio_inp_dis[28] O
gpio_inp_dis[29] O
gpio_inp_dis[2] O
gpio_inp_dis[30] O
gpio_inp_dis[31] O
gpio_inp_dis[32] O
gpio_inp_dis[33] O
gpio_inp_dis[34] O
gpio_inp_dis[35] O
gpio_inp_dis[36] O
gpio_inp_dis[37] O
gpio_inp_dis[38] O
gpio_inp_dis[39] O
gpio_inp_dis[3] O
gpio_inp_dis[40] O
gpio_inp_dis[41] O
gpio_inp_dis[42] O
gpio_inp_dis[43] O
gpio_inp_dis[4] O
gpio_inp_dis[5] O
gpio_inp_dis[6] O
gpio_inp_dis[7] O
gpio_inp_dis[8] O
gpio_inp_dis[9] O
gpio_loopback_one[0] I
gpio_loopback_one[10] I
gpio_loopback_one[11] I
gpio_loopback_one[12] I
gpio_loopback_one[13] I
gpio_loopback_one[14] I
gpio_loopback_one[15] I
gpio_loopback_one[16] I
gpio_loopback_one[17] I
gpio_loopback_one[18] I
gpio_loopback_one[19] I
gpio_loopback_one[1] I
gpio_loopback_one[20] I
gpio_loopback_one[21] I
gpio_loopback_one[22] I
gpio_loopback_one[23] I
gpio_loopback_one[24] I
gpio_loopback_one[25] I
gpio_loopback_one[26] I
gpio_loopback_one[27] I
gpio_loopback_one[28] I
gpio_loopback_one[29] I
gpio_loopback_one[2] I
gpio_loopback_one[30] I
gpio_loopback_one[31] I
gpio_loopback_one[32] I
gpio_loopback_one[33] I
gpio_loopback_one[34] I
gpio_loopback_one[35] I
gpio_loopback_one[36] I
gpio_loopback_one[37] I
gpio_loopback_one[38] I
gpio_loopback_one[39] I
gpio_loopback_one[3] I
gpio_loopback_one[40] I
gpio_loopback_one[41] I
gpio_loopback_one[42] I
gpio_loopback_one[43] I
gpio_loopback_one[4] I
gpio_loopback_one[5] I
gpio_loopback_one[6] I
gpio_loopback_one[7] I
gpio_loopback_one[8] I
gpio_loopback_one[9] I
gpio_loopback_zero[0] I
gpio_loopback_zero[10] I
gpio_loopback_zero[11] I
gpio_loopback_zero[12] I
gpio_loopback_zero[13] I
gpio_loopback_zero[14] I
gpio_loopback_zero[15] I
gpio_loopback_zero[16] I
gpio_loopback_zero[17] I
gpio_loopback_zero[18] I
gpio_loopback_zero[19] I
gpio_loopback_zero[1] I
gpio_loopback_zero[20] I
gpio_loopback_zero[21] I
gpio_loopback_zero[22] I
gpio_loopback_zero[23] I
gpio_loopback_zero[24] I
gpio_loopback_zero[25] I
gpio_loopback_zero[26] I
gpio_loopback_zero[27] I
gpio_loopback_zero[28] I
gpio_loopback_zero[29] I
gpio_loopback_zero[2] I
gpio_loopback_zero[30] I
gpio_loopback_zero[31] I
gpio_loopback_zero[32] I
gpio_loopback_zero[33] I
gpio_loopback_zero[34] I
gpio_loopback_zero[35] I
gpio_loopback_zero[36] I
gpio_loopback_zero[37] I
gpio_loopback_zero[38] I
gpio_loopback_zero[39] I
gpio_loopback_zero[3] I
gpio_loopback_zero[40] I
gpio_loopback_zero[41] I
gpio_loopback_zero[42] I
gpio_loopback_zero[43] I
gpio_loopback_zero[4] I
gpio_loopback_zero[5] I
gpio_loopback_zero[6] I
gpio_loopback_zero[7] I
gpio_loopback_zero[8] I
gpio_loopback_zero[9] I
gpio_oeb[0] O
gpio_oeb[10] O
gpio_oeb[11] O
gpio_oeb[12] O
gpio_oeb[13] O
gpio_oeb[14] O
gpio_oeb[15] O
gpio_oeb[16] O
gpio_oeb[17] O
gpio_oeb[18] O
gpio_oeb[19] O
gpio_oeb[1] O
gpio_oeb[20] O
gpio_oeb[21] O
gpio_oeb[22] O
gpio_oeb[23] O
gpio_oeb[24] O
gpio_oeb[25] O
gpio_oeb[26] O
gpio_oeb[27] O
gpio_oeb[28] O
gpio_oeb[29] O
gpio_oeb[2] O
gpio_oeb[30] O
gpio_oeb[31] O
gpio_oeb[32] O
gpio_oeb[33] O
gpio_oeb[34] O
gpio_oeb[35] O
gpio_oeb[36] O
gpio_oeb[37] O
gpio_oeb[38] O
gpio_oeb[39] O
gpio_oeb[3] O
gpio_oeb[40] O
gpio_oeb[41] O
gpio_oeb[42] O
gpio_oeb[43] O
gpio_oeb[4] O
gpio_oeb[5] O
gpio_oeb[6] O
gpio_oeb[7] O
gpio_oeb[8] O
gpio_oeb[9] O
gpio_out[0] O
gpio_out[10] O
gpio_out[11] O
gpio_out[12] O
gpio_out[13] O
gpio_out[14] O
gpio_out[15] O
gpio_out[16] O
gpio_out[17] O
gpio_out[18] O
gpio_out[19] O
gpio_out[1] O
gpio_out[20] O
gpio_out[21] O
gpio_out[22] O
gpio_out[23] O
gpio_out[24] O
gpio_out[25] O
gpio_out[26] O
gpio_out[27] O
gpio_out[28] O
gpio_out[29] O
gpio_out[2] O
gpio_out[30] O
gpio_out[31] O
gpio_out[32] O
gpio_out[33] O
gpio_out[34] O
gpio_out[35] O
gpio_out[36] O
gpio_out[37] O
gpio_out[38] O
gpio_out[39] O
gpio_out[3] O
gpio_out[40] O
gpio_out[41] O
gpio_out[42] O
gpio_out[43] O
gpio_out[4] O
gpio_out[5] O
gpio_out[6] O
gpio_out[7] O
gpio_out[8] O
gpio_out[9] O
gpio_slow_sel[0] O
gpio_slow_sel[10] O
gpio_slow_sel[11] O
gpio_slow_sel[12] O
gpio_slow_sel[13] O
gpio_slow_sel[14] O
gpio_slow_sel[15] O
gpio_slow_sel[16] O
gpio_slow_sel[17] O
gpio_slow_sel[18] O
gpio_slow_sel[19] O
gpio_slow_sel[1] O
gpio_slow_sel[20] O
gpio_slow_sel[21] O
gpio_slow_sel[22] O
gpio_slow_sel[23] O
gpio_slow_sel[24] O
gpio_slow_sel[25] O
gpio_slow_sel[26] O
gpio_slow_sel[27] O
gpio_slow_sel[28] O
gpio_slow_sel[29] O
gpio_slow_sel[2] O
gpio_slow_sel[30] O
gpio_slow_sel[31] O
gpio_slow_sel[32] O
gpio_slow_sel[33] O
gpio_slow_sel[34] O
gpio_slow_sel[35] O
gpio_slow_sel[36] O
gpio_slow_sel[37] O
gpio_slow_sel[38] O
gpio_slow_sel[39] O
gpio_slow_sel[3] O
gpio_slow_sel[40] O
gpio_slow_sel[41] O
gpio_slow_sel[42] O
gpio_slow_sel[43] O
gpio_slow_sel[4] O
gpio_slow_sel[5] O
gpio_slow_sel[6] O
gpio_slow_sel[7] O
gpio_slow_sel[8] O
gpio_slow_sel[9] O
gpio_vtrip_sel[0] O
gpio_vtrip_sel[10] O
gpio_vtrip_sel[11] O
gpio_vtrip_sel[12] O
gpio_vtrip_sel[13] O
gpio_vtrip_sel[14] O
gpio_vtrip_sel[15] O
gpio_vtrip_sel[16] O
gpio_vtrip_sel[17] O
gpio_vtrip_sel[18] O
gpio_vtrip_sel[19] O
gpio_vtrip_sel[1] O
gpio_vtrip_sel[20] O
gpio_vtrip_sel[21] O
gpio_vtrip_sel[22] O
gpio_vtrip_sel[23] O
gpio_vtrip_sel[24] O
gpio_vtrip_sel[25] O
gpio_vtrip_sel[26] O
gpio_vtrip_sel[27] O
gpio_vtrip_sel[28] O
gpio_vtrip_sel[29] O
gpio_vtrip_sel[2] O