*SPEF "ieee 1481-1999"
*DESIGN "user_proj_timer"
*DATE "11:11:11 Fri 11 11, 1111"
*VENDOR "OpenRCX"
*PROGRAM "Parallel Extraction"
*VERSION "1.0"
*DESIGN_FLOW "NAME_SCOPE LOCAL" "PIN_CAP NONE"
*DIVIDER /
*DELIMITER :
*BUS_DELIMITER []
*T_UNIT 1 NS
*C_UNIT 1 PF
*R_UNIT 1 OHM
*L_UNIT 1 HENRY

*NAME_MAP
*1 io_in[0]
*2 io_in[10]
*3 io_in[1]
*4 io_in[2]
*5 io_in[3]
*6 io_in[4]
*7 io_in[5]
*8 io_in[6]
*9 io_in[7]
*10 io_in[8]
*11 io_in[9]
*12 net20
*13 net30
*14 net21
*15 net22
*16 net23
*17 net24
*18 net25
*19 net26
*20 net27
*21 net28
*22 net29
*23 io_out[0]
*24 io_out[10]
*25 io_out[1]
*26 io_out[2]
*27 io_out[3]
*28 io_out[4]
*29 io_out[5]
*30 io_out[6]
*31 io_out[7]
*32 io_out[8]
*33 io_out[9]
*36 wb_clk_i
*37 wb_rst_i
*38 _000_
*39 _001_
*40 _002_
*41 _003_
*42 _004_
*43 _005_
*44 _006_
*45 _007_
*46 _008_
*47 _009_
*48 _010_
*49 _011_
*50 _012_
*51 _013_
*52 _014_
*53 _015_
*54 _016_
*55 _017_
*56 _018_
*57 _019_
*58 _020_
*59 _021_
*60 _022_
*61 _023_
*62 _024_
*63 _025_
*64 _026_
*65 _027_
*66 _028_
*67 _029_
*68 _030_
*69 _031_
*70 _032_
*71 _033_
*72 _034_
*73 _035_
*74 _036_
*75 _037_
*76 _038_
*77 _039_
*78 _040_
*79 _041_
*80 _042_
*81 _043_
*82 _044_
*83 _045_
*84 _046_
*85 _047_
*86 _048_
*87 _049_
*88 _050_
*89 _051_
*90 _052_
*91 _053_
*92 _054_
*93 _055_
*94 _056_
*95 _057_
*96 _058_
*97 _059_
*98 _060_
*99 _061_
*100 _062_
*101 _063_
*102 _064_
*103 _065_
*104 _066_
*105 _067_
*106 _068_
*107 _069_
*108 _070_
*109 _071_
*110 _072_
*111 _073_
*112 _074_
*113 _075_
*114 _076_
*115 _077_
*116 _078_
*117 _079_
*118 _080_
*119 _081_
*120 _082_
*121 _083_
*122 _084_
*123 _085_
*124 _086_
*125 _087_
*126 _088_
*127 _089_
*128 _090_
*129 _091_
*130 _092_
*131 _093_
*132 _094_
*133 _095_
*134 _096_
*135 _097_
*136 _098_
*137 _099_
*138 _100_
*139 _101_
*140 _102_
*141 _103_
*142 _104_
*143 _105_
*144 _106_
*145 _107_
*146 _108_
*147 _109_
*148 _110_
*149 _111_
*150 _112_
*151 _113_
*152 _114_
*153 _115_
*154 _116_
*155 _117_
*156 _118_
*157 _119_
*158 _120_
*159 _121_
*160 _122_
*161 _123_
*162 _124_
*163 _125_
*164 _126_
*165 _127_
*166 _128_
*167 _129_
*168 _130_
*169 _131_
*170 _132_
*171 _133_
*172 _134_
*173 _135_
*174 _136_
*175 _137_
*176 _138_
*177 _139_
*178 _140_
*179 _141_
*180 _142_
*181 _143_
*182 _144_
*183 _145_
*184 _146_
*185 _147_
*186 _148_
*187 _149_
*188 _150_
*189 _151_
*190 _152_
*191 _153_
*192 _154_
*193 _155_
*194 _156_
*195 _157_
*196 _158_
*197 _159_
*198 _160_
*199 _161_
*200 _162_
*201 _163_
*202 _164_
*203 _165_
*204 _166_
*205 _167_
*206 _168_
*207 _169_
*208 _170_
*209 _171_
*210 _172_
*211 _173_
*212 _174_
*213 _175_
*214 _176_
*215 _177_
*216 _178_
*217 _179_
*218 _180_
*219 _181_
*220 _182_
*221 _183_
*222 _184_
*223 _185_
*224 _186_
*225 _187_
*226 _188_
*227 _189_
*228 _190_
*229 _191_
*230 _192_
*231 _193_
*232 _194_
*233 _195_
*234 _196_
*235 _197_
*236 _198_
*237 _199_
*238 _200_
*239 _201_
*240 _202_
*241 _203_
*242 _204_
*243 _205_
*244 _206_
*245 _207_
*246 _208_
*247 _209_
*248 _210_
*249 _211_
*250 _212_
*251 _213_
*252 _214_
*253 _215_
*254 _216_
*255 _217_
*256 _218_
*257 _219_
*258 _220_
*259 _221_
*260 _222_
*261 _223_
*262 _224_
*263 _225_
*264 _226_
*265 _227_
*266 _228_
*267 _229_
*268 _230_
*269 _231_
*270 _232_
*271 _233_
*272 _234_
*273 _235_
*274 _236_
*275 _237_
*276 _238_
*277 _239_
*278 _240_
*279 _241_
*280 _242_
*281 _243_
*282 _244_
*283 _245_
*284 _246_
*285 _247_
*286 _248_
*287 _249_
*288 _250_
*289 _251_
*290 _252_
*291 _253_
*292 _254_
*293 _255_
*294 _256_
*295 _257_
*296 _258_
*297 _259_
*298 _260_
*299 _261_
*300 _262_
*301 _263_
*302 _264_
*303 _265_
*304 _266_
*305 _267_
*306 _268_
*307 _269_
*308 _270_
*309 _271_
*310 _272_
*311 _273_
*312 _274_
*313 _275_
*314 _276_
*315 _277_
*316 _278_
*317 _279_
*318 _280_
*319 _281_
*320 _282_
*321 _283_
*322 _284_
*323 _285_
*324 _286_
*325 _287_
*326 _288_
*327 _289_
*328 _290_
*329 _291_
*330 _292_
*331 _293_
*332 _294_
*333 _295_
*334 _296_
*335 _297_
*336 _298_
*337 _299_
*338 _300_
*339 _301_
*340 _302_
*341 _303_
*342 _304_
*343 _305_
*344 _306_
*345 _307_
*346 _308_
*347 _309_
*348 _310_
*349 _311_
*350 _312_
*351 _313_
*352 _314_
*353 _315_
*354 _316_
*355 _317_
*356 _318_
*357 _319_
*358 _320_
*359 _321_
*360 _322_
*361 _323_
*362 _324_
*363 _325_
*364 _326_
*365 _327_
*366 _328_
*367 _329_
*368 _330_
*369 clknet_0_wb_clk_i
*370 clknet_3_0_0_wb_clk_i
*371 clknet_3_1_0_wb_clk_i
*372 clknet_3_2_0_wb_clk_i
*373 clknet_3_3_0_wb_clk_i
*374 clknet_3_4_0_wb_clk_i
*375 clknet_3_5_0_wb_clk_i
*376 clknet_3_6_0_wb_clk_i
*377 clknet_3_7_0_wb_clk_i
*378 net1
*379 net10
*380 net100
*381 net101
*382 net102
*383 net103
*384 net104
*385 net105
*386 net106
*387 net107
*388 net108
*389 net109
*390 net11
*391 net110
*392 net111
*393 net112
*394 net113
*395 net114
*396 net115
*397 net116
*398 net117
*399 net118
*400 net119
*401 net12
*402 net120
*403 net121
*404 net122
*405 net123
*406 net124
*407 net125
*408 net126
*409 net127
*410 net128
*411 net129
*412 net13
*413 net130
*414 net131
*415 net132
*416 net133
*417 net134
*418 net135
*419 net136
*420 net137
*421 net138
*422 net139
*423 net14
*424 net140
*425 net141
*426 net142
*427 net143
*428 net144
*429 net145
*430 net146
*431 net147
*432 net148
*433 net149
*434 net15
*435 net150
*436 net151
*437 net152
*438 net153
*439 net154
*440 net155
*441 net156
*442 net157
*443 net158
*444 net159
*445 net16
*446 net160
*447 net161
*448 net162
*449 net163
*450 net164
*451 net165
*452 net166
*453 net167
*454 net168
*455 net169
*456 net17
*457 net170
*458 net171
*459 net172
*460 net173
*461 net174
*462 net175
*463 net176
*464 net177
*465 net178
*466 net179
*467 net18
*468 net180
*469 net181
*470 net182
*471 net183
*472 net184
*473 net185
*474 net186
*475 net187
*476 net188
*477 net189
*478 net19
*479 net190
*480 net191
*481 net192
*482 net193
*483 net194
*484 net195
*485 net196
*486 net197
*487 net198
*488 net199
*489 net2
*490 net200
*491 net201
*492 net202
*493 net203
*494 net204
*495 net205
*496 net206
*497 net207
*498 net208
*499 net209
*500 net210
*501 net211
*502 net212
*503 net213
*504 net214
*505 net215
*506 net216
*507 net3
*508 net31
*509 net32
*510 net33
*511 net34
*512 net35
*513 net36
*514 net37
*515 net38
*516 net39
*517 net4
*518 net40
*519 net41
*520 net42
*521 net43
*522 net44
*523 net45
*524 net46
*525 net47
*526 net48
*527 net49
*528 net5
*529 net50
*530 net51
*531 net52
*532 net53
*533 net54
*534 net55
*535 net56
*536 net57
*537 net58
*538 net59
*539 net6
*540 net60
*541 net61
*542 net62
*543 net63
*544 net64
*545 net65
*546 net66
*547 net67
*548 net68
*549 net69
*550 net7
*551 net70
*552 net71
*553 net72
*554 net73
*555 net74
*556 net75
*557 net76
*558 net77
*559 net78
*560 net79
*561 net8
*562 net80
*563 net81
*564 net82
*565 net83
*566 net84
*567 net85
*568 net86
*569 net87
*570 net88
*571 net89
*572 net9
*573 net90
*574 net91
*575 net92
*576 net93
*577 net94
*578 net95
*579 net96
*580 net97
*581 net98
*582 net99
*583 timer\.dig_cnt\[0\]
*584 timer\.dig_cnt\[1\]
*585 timer\.min_ones\[0\]
*586 timer\.min_ones\[1\]
*587 timer\.min_ones\[2\]
*588 timer\.min_ones\[3\]
*589 timer\.min_tens\[0\]
*590 timer\.min_tens\[1\]
*591 timer\.min_tens\[2\]
*592 timer\.min_tens\[3\]
*593 timer\.scan
*594 timer\.scan_div\[0\]
*595 timer\.scan_div\[10\]
*596 timer\.scan_div\[11\]
*597 timer\.scan_div\[12\]
*598 timer\.scan_div\[13\]
*599 timer\.scan_div\[14\]
*600 timer\.scan_div\[15\]
*601 timer\.scan_div\[16\]
*602 timer\.scan_div\[17\]
*603 timer\.scan_div\[18\]
*604 timer\.scan_div\[19\]
*605 timer\.scan_div\[1\]
*606 timer\.scan_div\[20\]
*607 timer\.scan_div\[21\]
*608 timer\.scan_div\[22\]
*609 timer\.scan_div\[23\]
*610 timer\.scan_div\[24\]
*611 timer\.scan_div\[25\]
*612 timer\.scan_div\[26\]
*613 timer\.scan_div\[27\]
*614 timer\.scan_div\[28\]
*615 timer\.scan_div\[29\]
*616 timer\.scan_div\[2\]
*617 timer\.scan_div\[30\]
*618 timer\.scan_div\[31\]
*619 timer\.scan_div\[3\]
*620 timer\.scan_div\[4\]
*621 timer\.scan_div\[5\]
*622 timer\.scan_div\[6\]
*623 timer\.scan_div\[7\]
*624 timer\.scan_div\[8\]
*625 timer\.scan_div\[9\]
*626 timer\.sec
*627 timer\.sec_div\[0\]
*628 timer\.sec_div\[10\]
*629 timer\.sec_div\[11\]
*630 timer\.sec_div\[12\]
*631 timer\.sec_div\[13\]
*632 timer\.sec_div\[14\]
*633 timer\.sec_div\[15\]
*634 timer\.sec_div\[16\]
*635 timer\.sec_div\[17\]
*636 timer\.sec_div\[18\]
*637 timer\.sec_div\[19\]
*638 timer\.sec_div\[1\]
*639 timer\.sec_div\[20\]
*640 timer\.sec_div\[21\]
*641 timer\.sec_div\[22\]
*642 timer\.sec_div\[23\]
*643 timer\.sec_div\[24\]
*644 timer\.sec_div\[25\]
*645 timer\.sec_div\[26\]
*646 timer\.sec_div\[27\]
*647 timer\.sec_div\[28\]
*648 timer\.sec_div\[29\]
*649 timer\.sec_div\[2\]
*650 timer\.sec_div\[30\]
*651 timer\.sec_div\[31\]
*652 timer\.sec_div\[3\]
*653 timer\.sec_div\[4\]
*654 timer\.sec_div\[5\]
*655 timer\.sec_div\[6\]
*656 timer\.sec_div\[7\]
*657 timer\.sec_div\[8\]
*658 timer\.sec_div\[9\]
*659 timer\.sec_ones\[0\]
*660 timer\.sec_ones\[1\]
*661 timer\.sec_ones\[2\]
*662 timer\.sec_ones\[3\]
*663 timer\.sec_tens\[0\]
*664 timer\.sec_tens\[1\]
*665 timer\.sec_tens\[2\]
*666 timer\.sec_tens\[3\]
*667 ANTENNA_1
*668 ANTENNA_10
*669 ANTENNA_2
*670 ANTENNA_3
*671 ANTENNA_4
*672 ANTENNA_5
*673 ANTENNA_6
*674 ANTENNA_7
*675 ANTENNA_8
*676 ANTENNA_9
*677 ANTENNA__339__A
*678 ANTENNA__340__A2
*679 ANTENNA__341__B
*680 ANTENNA__343__B
*681 ANTENNA__567__A
*682 ANTENNA__567__B
*683 ANTENNA__568__A_N
*684 ANTENNA__568__B
*685 ANTENNA__569__A_N
*686 ANTENNA__569__B
*687 ANTENNA__570__S0
*688 ANTENNA__570__S1
*689 ANTENNA__571__S0
*690 ANTENNA__571__S1
*691 ANTENNA__574__S0
*692 ANTENNA__574__S1
*693 ANTENNA__577__S0
*694 ANTENNA__577__S1
*695 ANTENNA__590__A
*696 ANTENNA__591__A
*697 ANTENNA__592__A
*698 ANTENNA__624__A
*699 ANTENNA__630__A
*700 ANTENNA__642__A
*701 ANTENNA__643__A
*702 ANTENNA__644__A
*703 ANTENNA__645__A
*704 ANTENNA__646__A
*705 ANTENNA__647__A
*706 ANTENNA__648__A
*707 ANTENNA__649__A
*708 ANTENNA__650__A
*709 ANTENNA__651__A
*710 ANTENNA__652__A
*711 ANTENNA__653__A
*712 ANTENNA__654__A
*713 ANTENNA__655__A
*714 ANTENNA__656__A
*715 ANTENNA__658__A
*716 ANTENNA__659__A
*717 ANTENNA__660__A
*718 ANTENNA__661__A
*719 ANTENNA__662__A
*720 ANTENNA__663__A
*721 ANTENNA__664__A
*722 ANTENNA__665__A
*723 ANTENNA__666__A
*724 ANTENNA__667__A
*725 ANTENNA__668__A
*726 ANTENNA__669__A
*727 ANTENNA__670__A
*728 ANTENNA__671__A
*729 ANTENNA__672__A
*730 ANTENNA__673__CLK
*731 ANTENNA__674__CLK
*732 ANTENNA__675__CLK
*733 ANTENNA__676__CLK
*734 ANTENNA__677__CLK
*735 ANTENNA__678__CLK
*736 ANTENNA__679__CLK
*737 ANTENNA__680__CLK
*738 ANTENNA__681__CLK
*739 ANTENNA__682__CLK
*740 ANTENNA__683__CLK
*741 ANTENNA__684__CLK
*742 ANTENNA__685__CLK
*743 ANTENNA__686__CLK
*744 ANTENNA__687__CLK
*745 ANTENNA__688__CLK
*746 ANTENNA__689__CLK
*747 ANTENNA__690__CLK
*748 ANTENNA__691__CLK
*749 ANTENNA__692__CLK
*750 ANTENNA__693__CLK
*751 ANTENNA__694__CLK
*752 ANTENNA__695__CLK
*753 ANTENNA__696__CLK
*754 ANTENNA__697__CLK
*755 ANTENNA__698__CLK
*756 ANTENNA__699__CLK
*757 ANTENNA__700__CLK
*758 ANTENNA__701__CLK
*759 ANTENNA__702__CLK
*760 ANTENNA__703__CLK
*761 ANTENNA__704__CLK
*762 ANTENNA__705__CLK
*763 ANTENNA__706__CLK
*764 ANTENNA__707__CLK
*765 ANTENNA__708__CLK
*766 ANTENNA__709__CLK
*767 ANTENNA__710__CLK
*768 ANTENNA__711__CLK
*769 ANTENNA__712__CLK
*770 ANTENNA__713__CLK
*771 ANTENNA__714__CLK
*772 ANTENNA__715__CLK
*773 ANTENNA__716__CLK
*774 ANTENNA__717__CLK
*775 ANTENNA__718__CLK
*776 ANTENNA__719__CLK
*777 ANTENNA__720__CLK
*778 ANTENNA__721__CLK
*779 ANTENNA__722__CLK
*780 ANTENNA__723__CLK
*781 ANTENNA__724__CLK
*782 ANTENNA__725__CLK
*783 ANTENNA__726__CLK
*784 ANTENNA__727__CLK
*785 ANTENNA__728__CLK
*786 ANTENNA__729__CLK
*787 ANTENNA__730__CLK
*788 ANTENNA__731__CLK
*789 ANTENNA__732__CLK
*790 ANTENNA__733__CLK
*791 ANTENNA__734__CLK
*792 ANTENNA__735__CLK
*793 ANTENNA__736__CLK
*794 ANTENNA__737__CLK
*795 ANTENNA__738__CLK
*796 ANTENNA__739__CLK
*797 ANTENNA__740__CLK
*798 ANTENNA__741__CLK
*799 ANTENNA__742__CLK
*800 ANTENNA__743__CLK
*801 ANTENNA__744__CLK
*802 ANTENNA__745__CLK
*803 ANTENNA__746__CLK
*804 ANTENNA__747__CLK
*805 ANTENNA__748__CLK
*806 ANTENNA__749__CLK
*807 ANTENNA__750__CLK
*808 ANTENNA__751__CLK
*809 ANTENNA__752__CLK
*810 ANTENNA__753__CLK
*811 ANTENNA__754__CLK
*812 ANTENNA__755__CLK
*813 ANTENNA__756__CLK
*814 ANTENNA_clkbuf_3_0_0_wb_clk_i_A
*815 ANTENNA_clkbuf_3_1_0_wb_clk_i_A
*816 ANTENNA_clkbuf_3_2_0_wb_clk_i_A
*817 ANTENNA_clkbuf_3_3_0_wb_clk_i_A
*818 ANTENNA_clkbuf_3_4_0_wb_clk_i_A
*819 ANTENNA_clkbuf_3_5_0_wb_clk_i_A
*820 ANTENNA_clkbuf_3_6_0_wb_clk_i_A
*821 ANTENNA_clkbuf_3_7_0_wb_clk_i_A
*822 ANTENNA_fanout14_A
*823 ANTENNA_fanout15_A
*824 ANTENNA_fanout16_A
*825 ANTENNA_fanout17_A
*826 ANTENNA_fanout18_A
*827 ANTENNA_fanout19_A
*828 ANTENNA_hold162_A
*829 ANTENNA_output10_A
*830 ANTENNA_output11_A
*831 ANTENNA_output12_A
*832 ANTENNA_output2_A
*833 ANTENNA_output3_A
*834 ANTENNA_output4_A
*835 ANTENNA_output5_A
*836 ANTENNA_output7_A
*837 ANTENNA_output8_A
*838 ANTENNA_output9_A
*839 FILLER_0_0_109
*840 FILLER_0_0_113
*841 FILLER_0_0_125
*842 FILLER_0_0_137
*843 FILLER_0_0_141
*844 FILLER_0_0_15
*845 FILLER_0_0_153
*846 FILLER_0_0_165
*847 FILLER_0_0_169
*848 FILLER_0_0_181
*849 FILLER_0_0_193
*850 FILLER_0_0_197
*851 FILLER_0_0_209
*852 FILLER_0_0_221
*853 FILLER_0_0_225
*854 FILLER_0_0_237
*855 FILLER_0_0_249
*856 FILLER_0_0_253
*857 FILLER_0_0_265
*858 FILLER_0_0_27
*859 FILLER_0_0_277
*860 FILLER_0_0_281
*861 FILLER_0_0_29
*862 FILLER_0_0_293
*863 FILLER_0_0_3
*864 FILLER_0_0_305
*865 FILLER_0_0_309
*866 FILLER_0_0_321
*867 FILLER_0_0_333
*868 FILLER_0_0_337
*869 FILLER_0_0_349
*870 FILLER_0_0_361
*871 FILLER_0_0_365
*872 FILLER_0_0_377
*873 FILLER_0_0_389
*874 FILLER_0_0_393
*875 FILLER_0_0_405
*876 FILLER_0_0_41
*877 FILLER_0_0_53
*878 FILLER_0_0_57
*879 FILLER_0_0_69
*880 FILLER_0_0_81
*881 FILLER_0_0_85
*882 FILLER_0_0_97
*883 FILLER_0_1000_109
*884 FILLER_0_1000_121
*885 FILLER_0_1000_133
*886 FILLER_0_1000_139
*887 FILLER_0_1000_141
*888 FILLER_0_1000_15
*889 FILLER_0_1000_153
*890 FILLER_0_1000_165
*891 FILLER_0_1000_177
*892 FILLER_0_1000_189
*893 FILLER_0_1000_195
*894 FILLER_0_1000_197
*895 FILLER_0_1000_209
*896 FILLER_0_1000_221
*897 FILLER_0_1000_233
*898 FILLER_0_1000_245
*899 FILLER_0_1000_251
*900 FILLER_0_1000_253
*901 FILLER_0_1000_265
*902 FILLER_0_1000_27
*903 FILLER_0_1000_277
*904 FILLER_0_1000_289
*905 FILLER_0_1000_29
*906 FILLER_0_1000_3
*907 FILLER_0_1000_301
*908 FILLER_0_1000_307
*909 FILLER_0_1000_309
*910 FILLER_0_1000_321
*911 FILLER_0_1000_333
*912 FILLER_0_1000_345
*913 FILLER_0_1000_357
*914 FILLER_0_1000_363
*915 FILLER_0_1000_365
*916 FILLER_0_1000_377
*917 FILLER_0_1000_389
*918 FILLER_0_1000_401
*919 FILLER_0_1000_41
*920 FILLER_0_1000_53
*921 FILLER_0_1000_65
*922 FILLER_0_1000_77
*923 FILLER_0_1000_83
*924 FILLER_0_1000_85
*925 FILLER_0_1000_97
*926 FILLER_0_1001_105
*927 FILLER_0_1001_111
*928 FILLER_0_1001_113
*929 FILLER_0_1001_125
*930 FILLER_0_1001_137
*931 FILLER_0_1001_149
*932 FILLER_0_1001_15
*933 FILLER_0_1001_161
*934 FILLER_0_1001_167
*935 FILLER_0_1001_169
*936 FILLER_0_1001_181
*937 FILLER_0_1001_193
*938 FILLER_0_1001_205
*939 FILLER_0_1001_217
*940 FILLER_0_1001_223
*941 FILLER_0_1001_225
*942 FILLER_0_1001_237
*943 FILLER_0_1001_249
*944 FILLER_0_1001_261
*945 FILLER_0_1001_27
*946 FILLER_0_1001_273
*947 FILLER_0_1001_279
*948 FILLER_0_1001_281
*949 FILLER_0_1001_293
*950 FILLER_0_1001_3
*951 FILLER_0_1001_305
*952 FILLER_0_1001_317
*953 FILLER_0_1001_329
*954 FILLER_0_1001_335
*955 FILLER_0_1001_337
*956 FILLER_0_1001_349
*957 FILLER_0_1001_361
*958 FILLER_0_1001_373
*959 FILLER_0_1001_385
*960 FILLER_0_1001_39
*961 FILLER_0_1001_391
*962 FILLER_0_1001_393
*963 FILLER_0_1001_405
*964 FILLER_0_1001_51
*965 FILLER_0_1001_55
*966 FILLER_0_1001_57
*967 FILLER_0_1001_69
*968 FILLER_0_1001_81
*969 FILLER_0_1001_93
*970 FILLER_0_1002_109
*971 FILLER_0_1002_121
*972 FILLER_0_1002_133
*973 FILLER_0_1002_139
*974 FILLER_0_1002_141
*975 FILLER_0_1002_15
*976 FILLER_0_1002_153
*977 FILLER_0_1002_165
*978 FILLER_0_1002_177
*979 FILLER_0_1002_189
*980 FILLER_0_1002_195
*981 FILLER_0_1002_197
*982 FILLER_0_1002_209
*983 FILLER_0_1002_221
*984 FILLER_0_1002_233
*985 FILLER_0_1002_245
*986 FILLER_0_1002_251
*987 FILLER_0_1002_253
*988 FILLER_0_1002_265
*989 FILLER_0_1002_27
*990 FILLER_0_1002_277
*991 FILLER_0_1002_289
*992 FILLER_0_1002_29
*993 FILLER_0_1002_3
*994 FILLER_0_1002_301
*995 FILLER_0_1002_307
*996 FILLER_0_1002_309
*997 FILLER_0_1002_321
*998 FILLER_0_1002_333
*999 FILLER_0_1002_345
*1000 FILLER_0_1002_357
*1001 FILLER_0_1002_363
*1002 FILLER_0_1002_365
*1003 FILLER_0_1002_377
*1004 FILLER_0_1002_389
*1005 FILLER_0_1002_401
*1006 FILLER_0_1002_41
*1007 FILLER_0_1002_53
*1008 FILLER_0_1002_65
*1009 FILLER_0_1002_77
*1010 FILLER_0_1002_83
*1011 FILLER_0_1002_85
*1012 FILLER_0_1002_97
*1013 FILLER_0_1003_105
*1014 FILLER_0_1003_111
*1015 FILLER_0_1003_113
*1016 FILLER_0_1003_125
*1017 FILLER_0_1003_137
*1018 FILLER_0_1003_149
*1019 FILLER_0_1003_15
*1020 FILLER_0_1003_161
*1021 FILLER_0_1003_167
*1022 FILLER_0_1003_169
*1023 FILLER_0_1003_181
*1024 FILLER_0_1003_193
*1025 FILLER_0_1003_205
*1026 FILLER_0_1003_217
*1027 FILLER_0_1003_223
*1028 FILLER_0_1003_225
*1029 FILLER_0_1003_237
*1030 FILLER_0_1003_249
*1031 FILLER_0_1003_261
*1032 FILLER_0_1003_27
*1033 FILLER_0_1003_273
*1034 FILLER_0_1003_279
*1035 FILLER_0_1003_281
*1036 FILLER_0_1003_293
*1037 FILLER_0_1003_3
*1038 FILLER_0_1003_305
*1039 FILLER_0_1003_317
*1040 FILLER_0_1003_329
*1041 FILLER_0_1003_335
*1042 FILLER_0_1003_337
*1043 FILLER_0_1003_349
*1044 FILLER_0_1003_361
*1045 FILLER_0_1003_373
*1046 FILLER_0_1003_385
*1047 FILLER_0_1003_39
*1048 FILLER_0_1003_391
*1049 FILLER_0_1003_393
*1050 FILLER_0_1003_405
*1051 FILLER_0_1003_51
*1052 FILLER_0_1003_55
*1053 FILLER_0_1003_57
*1054 FILLER_0_1003_69
*1055 FILLER_0_1003_81
*1056 FILLER_0_1003_93
*1057 FILLER_0_1004_109
*1058 FILLER_0_1004_121
*1059 FILLER_0_1004_13
*1060 FILLER_0_1004_133
*1061 FILLER_0_1004_139
*1062 FILLER_0_1004_141
*1063 FILLER_0_1004_153
*1064 FILLER_0_1004_165
*1065 FILLER_0_1004_17
*1066 FILLER_0_1004_177
*1067 FILLER_0_1004_189
*1068 FILLER_0_1004_195
*1069 FILLER_0_1004_197
*1070 FILLER_0_1004_209
*1071 FILLER_0_1004_21
*1072 FILLER_0_1004_221
*1073 FILLER_0_1004_233
*1074 FILLER_0_1004_245
*1075 FILLER_0_1004_251
*1076 FILLER_0_1004_253
*1077 FILLER_0_1004_265
*1078 FILLER_0_1004_27
*1079 FILLER_0_1004_277
*1080 FILLER_0_1004_289
*1081 FILLER_0_1004_29
*1082 FILLER_0_1004_301
*1083 FILLER_0_1004_307
*1084 FILLER_0_1004_309
*1085 FILLER_0_1004_321
*1086 FILLER_0_1004_333
*1087 FILLER_0_1004_345
*1088 FILLER_0_1004_357
*1089 FILLER_0_1004_363
*1090 FILLER_0_1004_365
*1091 FILLER_0_1004_377
*1092 FILLER_0_1004_389
*1093 FILLER_0_1004_401
*1094 FILLER_0_1004_41
*1095 FILLER_0_1004_53
*1096 FILLER_0_1004_65
*1097 FILLER_0_1004_77
*1098 FILLER_0_1004_83
*1099 FILLER_0_1004_85
*1100 FILLER_0_1004_9
*1101 FILLER_0_1004_97
*1102 FILLER_0_1005_105
*1103 FILLER_0_1005_111
*1104 FILLER_0_1005_113
*1105 FILLER_0_1005_125
*1106 FILLER_0_1005_137
*1107 FILLER_0_1005_149
*1108 FILLER_0_1005_15
*1109 FILLER_0_1005_161
*1110 FILLER_0_1005_167
*1111 FILLER_0_1005_169
*1112 FILLER_0_1005_181
*1113 FILLER_0_1005_193
*1114 FILLER_0_1005_205
*1115 FILLER_0_1005_217
*1116 FILLER_0_1005_223
*1117 FILLER_0_1005_225
*1118 FILLER_0_1005_237
*1119 FILLER_0_1005_249
*1120 FILLER_0_1005_261
*1121 FILLER_0_1005_27
*1122 FILLER_0_1005_273
*1123 FILLER_0_1005_279
*1124 FILLER_0_1005_281
*1125 FILLER_0_1005_293
*1126 FILLER_0_1005_3
*1127 FILLER_0_1005_305
*1128 FILLER_0_1005_317
*1129 FILLER_0_1005_329
*1130 FILLER_0_1005_335
*1131 FILLER_0_1005_337
*1132 FILLER_0_1005_349
*1133 FILLER_0_1005_361
*1134 FILLER_0_1005_373
*1135 FILLER_0_1005_385
*1136 FILLER_0_1005_39
*1137 FILLER_0_1005_391
*1138 FILLER_0_1005_393
*1139 FILLER_0_1005_405
*1140 FILLER_0_1005_51
*1141 FILLER_0_1005_55
*1142 FILLER_0_1005_57
*1143 FILLER_0_1005_69
*1144 FILLER_0_1005_81
*1145 FILLER_0_1005_93
*1146 FILLER_0_1006_109
*1147 FILLER_0_1006_121
*1148 FILLER_0_1006_133
*1149 FILLER_0_1006_139
*1150 FILLER_0_1006_141
*1151 FILLER_0_1006_15
*1152 FILLER_0_1006_153
*1153 FILLER_0_1006_165
*1154 FILLER_0_1006_177
*1155 FILLER_0_1006_189
*1156 FILLER_0_1006_195
*1157 FILLER_0_1006_197
*1158 FILLER_0_1006_209
*1159 FILLER_0_1006_221
*1160 FILLER_0_1006_233
*1161 FILLER_0_1006_245
*1162 FILLER_0_1006_251
*1163 FILLER_0_1006_253
*1164 FILLER_0_1006_265
*1165 FILLER_0_1006_27
*1166 FILLER_0_1006_277
*1167 FILLER_0_1006_289
*1168 FILLER_0_1006_29
*1169 FILLER_0_1006_3
*1170 FILLER_0_1006_301
*1171 FILLER_0_1006_307
*1172 FILLER_0_1006_309
*1173 FILLER_0_1006_321
*1174 FILLER_0_1006_333
*1175 FILLER_0_1006_345
*1176 FILLER_0_1006_357
*1177 FILLER_0_1006_363
*1178 FILLER_0_1006_365
*1179 FILLER_0_1006_377
*1180 FILLER_0_1006_389
*1181 FILLER_0_1006_401
*1182 FILLER_0_1006_41
*1183 FILLER_0_1006_53
*1184 FILLER_0_1006_65
*1185 FILLER_0_1006_77
*1186 FILLER_0_1006_83
*1187 FILLER_0_1006_85
*1188 FILLER_0_1006_97
*1189 FILLER_0_1007_105
*1190 FILLER_0_1007_111
*1191 FILLER_0_1007_113
*1192 FILLER_0_1007_125
*1193 FILLER_0_1007_137
*1194 FILLER_0_1007_149
*1195 FILLER_0_1007_15
*1196 FILLER_0_1007_161
*1197 FILLER_0_1007_167
*1198 FILLER_0_1007_169
*1199 FILLER_0_1007_181
*1200 FILLER_0_1007_193
*1201 FILLER_0_1007_205
*1202 FILLER_0_1007_217
*1203 FILLER_0_1007_223
*1204 FILLER_0_1007_225
*1205 FILLER_0_1007_237
*1206 FILLER_0_1007_249
*1207 FILLER_0_1007_261
*1208 FILLER_0_1007_27
*1209 FILLER_0_1007_273
*1210 FILLER_0_1007_279
*1211 FILLER_0_1007_281
*1212 FILLER_0_1007_293
*1213 FILLER_0_1007_3
*1214 FILLER_0_1007_305
*1215 FILLER_0_1007_317
*1216 FILLER_0_1007_329
*1217 FILLER_0_1007_335
*1218 FILLER_0_1007_337
*1219 FILLER_0_1007_349
*1220 FILLER_0_1007_361
*1221 FILLER_0_1007_373
*1222 FILLER_0_1007_385
*1223 FILLER_0_1007_39
*1224 FILLER_0_1007_391
*1225 FILLER_0_1007_393
*1226 FILLER_0_1007_405
*1227 FILLER_0_1007_51
*1228 FILLER_0_1007_55
*1229 FILLER_0_1007_57
*1230 FILLER_0_1007_69
*1231 FILLER_0_1007_81
*1232 FILLER_0_1007_93
*1233 FILLER_0_1008_109
*1234 FILLER_0_1008_121
*1235 FILLER_0_1008_133
*1236 FILLER_0_1008_139
*1237 FILLER_0_1008_141
*1238 FILLER_0_1008_15
*1239 FILLER_0_1008_153
*1240 FILLER_0_1008_165
*1241 FILLER_0_1008_177
*1242 FILLER_0_1008_189
*1243 FILLER_0_1008_195
*1244 FILLER_0_1008_197
*1245 FILLER_0_1008_209
*1246 FILLER_0_1008_221
*1247 FILLER_0_1008_233
*1248 FILLER_0_1008_245
*1249 FILLER_0_1008_251
*1250 FILLER_0_1008_253
*1251 FILLER_0_1008_265
*1252 FILLER_0_1008_27
*1253 FILLER_0_1008_277
*1254 FILLER_0_1008_289
*1255 FILLER_0_1008_29
*1256 FILLER_0_1008_3
*1257 FILLER_0_1008_301
*1258 FILLER_0_1008_307
*1259 FILLER_0_1008_309
*1260 FILLER_0_1008_321
*1261 FILLER_0_1008_333
*1262 FILLER_0_1008_345
*1263 FILLER_0_1008_357
*1264 FILLER_0_1008_363
*1265 FILLER_0_1008_365
*1266 FILLER_0_1008_377
*1267 FILLER_0_1008_389
*1268 FILLER_0_1008_401
*1269 FILLER_0_1008_41
*1270 FILLER_0_1008_53
*1271 FILLER_0_1008_65
*1272 FILLER_0_1008_77
*1273 FILLER_0_1008_83
*1274 FILLER_0_1008_85
*1275 FILLER_0_1008_97
*1276 FILLER_0_1009_105
*1277 FILLER_0_1009_111
*1278 FILLER_0_1009_113
*1279 FILLER_0_1009_125
*1280 FILLER_0_1009_137
*1281 FILLER_0_1009_149
*1282 FILLER_0_1009_15
*1283 FILLER_0_1009_161
*1284 FILLER_0_1009_167
*1285 FILLER_0_1009_169
*1286 FILLER_0_1009_181
*1287 FILLER_0_1009_193
*1288 FILLER_0_1009_205
*1289 FILLER_0_1009_217
*1290 FILLER_0_1009_223
*1291 FILLER_0_1009_225
*1292 FILLER_0_1009_237
*1293 FILLER_0_1009_249
*1294 FILLER_0_1009_261
*1295 FILLER_0_1009_27
*1296 FILLER_0_1009_273
*1297 FILLER_0_1009_279
*1298 FILLER_0_1009_281
*1299 FILLER_0_1009_293
*1300 FILLER_0_1009_3
*1301 FILLER_0_1009_305
*1302 FILLER_0_1009_317
*1303 FILLER_0_1009_329
*1304 FILLER_0_1009_335
*1305 FILLER_0_1009_337
*1306 FILLER_0_1009_349
*1307 FILLER_0_1009_361
*1308 FILLER_0_1009_373
*1309 FILLER_0_1009_385
*1310 FILLER_0_1009_39
*1311 FILLER_0_1009_391
*1312 FILLER_0_1009_393
*1313 FILLER_0_1009_405
*1314 FILLER_0_1009_51
*1315 FILLER_0_1009_55
*1316 FILLER_0_1009_57
*1317 FILLER_0_1009_69
*1318 FILLER_0_1009_81
*1319 FILLER_0_1009_93
*1320 FILLER_0_100_109
*1321 FILLER_0_100_121
*1322 FILLER_0_100_133
*1323 FILLER_0_100_139
*1324 FILLER_0_100_141
*1325 FILLER_0_100_15
*1326 FILLER_0_100_153
*1327 FILLER_0_100_165
*1328 FILLER_0_100_177
*1329 FILLER_0_100_189
*1330 FILLER_0_100_195
*1331 FILLER_0_100_197
*1332 FILLER_0_100_209
*1333 FILLER_0_100_221
*1334 FILLER_0_100_233
*1335 FILLER_0_100_245
*1336 FILLER_0_100_251
*1337 FILLER_0_100_253
*1338 FILLER_0_100_265
*1339 FILLER_0_100_27
*1340 FILLER_0_100_277
*1341 FILLER_0_100_289
*1342 FILLER_0_100_29
*1343 FILLER_0_100_3
*1344 FILLER_0_100_301
*1345 FILLER_0_100_307
*1346 FILLER_0_100_309
*1347 FILLER_0_100_321
*1348 FILLER_0_100_333
*1349 FILLER_0_100_345
*1350 FILLER_0_100_357
*1351 FILLER_0_100_363
*1352 FILLER_0_100_365
*1353 FILLER_0_100_377
*1354 FILLER_0_100_389
*1355 FILLER_0_100_401
*1356 FILLER_0_100_41
*1357 FILLER_0_100_53
*1358 FILLER_0_100_65
*1359 FILLER_0_100_77
*1360 FILLER_0_100_83
*1361 FILLER_0_100_85
*1362 FILLER_0_100_97
*1363 FILLER_0_1010_109
*1364 FILLER_0_1010_121
*1365 FILLER_0_1010_133
*1366 FILLER_0_1010_139
*1367 FILLER_0_1010_141
*1368 FILLER_0_1010_15
*1369 FILLER_0_1010_153
*1370 FILLER_0_1010_165
*1371 FILLER_0_1010_177
*1372 FILLER_0_1010_189
*1373 FILLER_0_1010_195
*1374 FILLER_0_1010_197
*1375 FILLER_0_1010_209
*1376 FILLER_0_1010_221
*1377 FILLER_0_1010_233
*1378 FILLER_0_1010_245
*1379 FILLER_0_1010_251
*1380 FILLER_0_1010_253
*1381 FILLER_0_1010_265
*1382 FILLER_0_1010_27
*1383 FILLER_0_1010_277
*1384 FILLER_0_1010_289
*1385 FILLER_0_1010_29
*1386 FILLER_0_1010_3
*1387 FILLER_0_1010_301
*1388 FILLER_0_1010_307
*1389 FILLER_0_1010_309
*1390 FILLER_0_1010_321
*1391 FILLER_0_1010_333
*1392 FILLER_0_1010_345
*1393 FILLER_0_1010_357
*1394 FILLER_0_1010_363
*1395 FILLER_0_1010_365
*1396 FILLER_0_1010_377
*1397 FILLER_0_1010_389
*1398 FILLER_0_1010_401
*1399 FILLER_0_1010_41
*1400 FILLER_0_1010_53
*1401 FILLER_0_1010_65
*1402 FILLER_0_1010_77
*1403 FILLER_0_1010_83
*1404 FILLER_0_1010_85
*1405 FILLER_0_1010_97
*1406 FILLER_0_1011_105
*1407 FILLER_0_1011_111
*1408 FILLER_0_1011_113
*1409 FILLER_0_1011_125
*1410 FILLER_0_1011_137
*1411 FILLER_0_1011_149
*1412 FILLER_0_1011_15
*1413 FILLER_0_1011_161
*1414 FILLER_0_1011_167
*1415 FILLER_0_1011_169
*1416 FILLER_0_1011_181
*1417 FILLER_0_1011_193
*1418 FILLER_0_1011_205
*1419 FILLER_0_1011_217
*1420 FILLER_0_1011_223
*1421 FILLER_0_1011_225
*1422 FILLER_0_1011_237
*1423 FILLER_0_1011_249
*1424 FILLER_0_1011_261
*1425 FILLER_0_1011_27
*1426 FILLER_0_1011_273
*1427 FILLER_0_1011_279
*1428 FILLER_0_1011_281
*1429 FILLER_0_1011_293
*1430 FILLER_0_1011_3
*1431 FILLER_0_1011_305
*1432 FILLER_0_1011_317
*1433 FILLER_0_1011_329
*1434 FILLER_0_1011_335
*1435 FILLER_0_1011_337
*1436 FILLER_0_1011_349
*1437 FILLER_0_1011_361
*1438 FILLER_0_1011_373
*1439 FILLER_0_1011_385
*1440 FILLER_0_1011_39
*1441 FILLER_0_1011_391
*1442 FILLER_0_1011_393
*1443 FILLER_0_1011_405
*1444 FILLER_0_1011_51
*1445 FILLER_0_1011_55
*1446 FILLER_0_1011_57
*1447 FILLER_0_1011_69
*1448 FILLER_0_1011_81
*1449 FILLER_0_1011_93
*1450 FILLER_0_1012_109
*1451 FILLER_0_1012_121
*1452 FILLER_0_1012_133
*1453 FILLER_0_1012_139
*1454 FILLER_0_1012_141
*1455 FILLER_0_1012_15
*1456 FILLER_0_1012_153
*1457 FILLER_0_1012_165
*1458 FILLER_0_1012_177
*1459 FILLER_0_1012_189
*1460 FILLER_0_1012_195
*1461 FILLER_0_1012_197
*1462 FILLER_0_1012_209
*1463 FILLER_0_1012_221
*1464 FILLER_0_1012_233
*1465 FILLER_0_1012_245
*1466 FILLER_0_1012_251
*1467 FILLER_0_1012_253
*1468 FILLER_0_1012_265
*1469 FILLER_0_1012_27
*1470 FILLER_0_1012_277
*1471 FILLER_0_1012_289
*1472 FILLER_0_1012_29
*1473 FILLER_0_1012_3
*1474 FILLER_0_1012_301
*1475 FILLER_0_1012_307
*1476 FILLER_0_1012_309
*1477 FILLER_0_1012_321
*1478 FILLER_0_1012_333
*1479 FILLER_0_1012_345
*1480 FILLER_0_1012_357
*1481 FILLER_0_1012_363
*1482 FILLER_0_1012_365
*1483 FILLER_0_1012_377
*1484 FILLER_0_1012_389
*1485 FILLER_0_1012_401
*1486 FILLER_0_1012_41
*1487 FILLER_0_1012_53
*1488 FILLER_0_1012_65
*1489 FILLER_0_1012_77
*1490 FILLER_0_1012_83
*1491 FILLER_0_1012_85
*1492 FILLER_0_1012_97
*1493 FILLER_0_1013_105
*1494 FILLER_0_1013_111
*1495 FILLER_0_1013_113
*1496 FILLER_0_1013_125
*1497 FILLER_0_1013_137
*1498 FILLER_0_1013_149
*1499 FILLER_0_1013_15
*1500 FILLER_0_1013_161
*1501 FILLER_0_1013_167
*1502 FILLER_0_1013_169
*1503 FILLER_0_1013_181
*1504 FILLER_0_1013_193
*1505 FILLER_0_1013_205
*1506 FILLER_0_1013_217
*1507 FILLER_0_1013_223
*1508 FILLER_0_1013_225
*1509 FILLER_0_1013_237
*1510 FILLER_0_1013_249
*1511 FILLER_0_1013_261
*1512 FILLER_0_1013_27
*1513 FILLER_0_1013_273
*1514 FILLER_0_1013_279
*1515 FILLER_0_1013_281
*1516 FILLER_0_1013_293
*1517 FILLER_0_1013_3
*1518 FILLER_0_1013_305
*1519 FILLER_0_1013_317
*1520 FILLER_0_1013_329
*1521 FILLER_0_1013_335
*1522 FILLER_0_1013_337
*1523 FILLER_0_1013_349
*1524 FILLER_0_1013_361
*1525 FILLER_0_1013_373
*1526 FILLER_0_1013_385
*1527 FILLER_0_1013_39
*1528 FILLER_0_1013_391
*1529 FILLER_0_1013_393
*1530 FILLER_0_1013_405
*1531 FILLER_0_1013_51
*1532 FILLER_0_1013_55
*1533 FILLER_0_1013_57
*1534 FILLER_0_1013_69
*1535 FILLER_0_1013_81
*1536 FILLER_0_1013_93
*1537 FILLER_0_1014_109
*1538 FILLER_0_1014_121
*1539 FILLER_0_1014_133
*1540 FILLER_0_1014_139
*1541 FILLER_0_1014_141
*1542 FILLER_0_1014_15
*1543 FILLER_0_1014_153
*1544 FILLER_0_1014_165
*1545 FILLER_0_1014_177
*1546 FILLER_0_1014_189
*1547 FILLER_0_1014_195
*1548 FILLER_0_1014_197
*1549 FILLER_0_1014_209
*1550 FILLER_0_1014_221
*1551 FILLER_0_1014_233
*1552 FILLER_0_1014_245
*1553 FILLER_0_1014_251
*1554 FILLER_0_1014_253
*1555 FILLER_0_1014_265
*1556 FILLER_0_1014_27
*1557 FILLER_0_1014_277
*1558 FILLER_0_1014_289
*1559 FILLER_0_1014_29
*1560 FILLER_0_1014_3
*1561 FILLER_0_1014_301
*1562 FILLER_0_1014_307
*1563 FILLER_0_1014_309
*1564 FILLER_0_1014_321
*1565 FILLER_0_1014_333
*1566 FILLER_0_1014_345
*1567 FILLER_0_1014_357
*1568 FILLER_0_1014_363